Version 4
SHEET 1 880 680
WIRE 192 48 0 48
WIRE 256 48 192 48
WIRE 256 80 256 48
WIRE 0 96 0 48
WIRE 192 128 192 48
SYMBOL npn 192 80 R0
SYMATTR InstName Q1
SYMBOL voltage 0 80 R0
SYMATTR InstName V1
