Version 4
SHEET 1 1032 680
WIRE -112 48 -288 48
WIRE 256 48 -112 48
WIRE 256 80 256 48
WIRE -288 96 -288 48
WIRE -112 128 -112 48
WIRE -48 128 -112 128
WIRE 192 128 32 128
WIRE -112 192 -112 128
WIRE 16 192 -48 192
WIRE -288 208 -288 176
WIRE -48 208 -48 192
WIRE -48 208 -64 208
WIRE 256 224 256 176
WIRE 400 224 336 224
WIRE -48 256 -64 256
WIRE 400 256 400 224
WIRE -48 272 -48 256
WIRE 16 272 -48 272
WIRE -112 288 -112 272
FLAG -288 208 0
FLAG 400 256 0
FLAG -112 288 0
SYMBOL npn 192 80 R0
SYMATTR InstName Q1
SYMATTR Value 2N2222
SYMBOL sw -112 288 R180
SYMATTR InstName S1
SYMATTR SpiceModel TRIG
SYMBOL voltage 16 176 R0
WINDOW 0 -32 56 VBottom 2
WINDOW 3 32 56 Invisible 2
WINDOW 123 0 0 Left 0
WINDOW 39 0 0 Left 0
SYMATTR InstName V1
SYMATTR Value PULSE(0 5 0 0.00001 0.00001 4 5 5)
SYMBOL voltage -288 80 R0
WINDOW 123 0 0 Left 0
SYMATTR InstName V2
SYMATTR Value 9
SYMATTR SpiceLine Rser=1
SYMBOL res 352 208 R90
WINDOW 0 0 56 VBottom 2
WINDOW 3 32 56 VTop 2
SYMATTR InstName R1
SYMATTR Value 1000
SYMBOL res 48 112 R90
WINDOW 0 0 56 VBottom 2
WINDOW 3 32 56 VTop 2
SYMATTR InstName R2
SYMATTR Value 330
TEXT 424 600 Left 2 !.model TRIG SW(Ron=.01 Roff=10Meg Vt=4 Vh=-1)
TEXT 424 568 Left 2 !.tran 0 20 0 0.0001
